examples/Custom_controls_example/DSSfiles/Diamond_dss/Triplex_Linecodes_1Ph_Ext.dss
New Linecode.1/0_AL_TRIPLEX_1PH nphases=1
~ rmatrix=[0.36742424] !ohms per 1000 ft
~ xmatrix=[0.07856808]
~ cmatrix=[15]
~ Normamps=202  {202 1.25 *}
~ units=kft

New Linecode.2/0_1PH nphases=1
~ rmatrix=[0.29128788] !ohms per 1000 ft
~ xmatrix=[0.0785221]
~ cmatrix=[15]
~ Normamps=230  {230 1.25 *}
~ units=kft

New Linecode.3/0_1PH nphases=1
~ rmatrix=[0.2314394] !ohms per 1000 ft
~ xmatrix=[0.0785538]
~ cmatrix=[15]
~ Normamps=263  {263 1.25 *}
~ units=kft

New Linecode.4/0_1PH nphases=1
~ rmatrix=[0.18333334] !ohms per 1000 ft
~ xmatrix=[0.07840812]
~ cmatrix=[15]
~ Normamps=299  {299 1.25 *}
~ units=kft

New Linecode.1/0_AL_TRIPLEX_2PH nphases=3
~ rmatrix=[0.201761667 0.018049545 0.018049545 | 0.018049545 0.201761667 0.018049545 | 0.018049545 0.018049545 0.201761667] 
!ohms per 1000 ft
~ xmatrix=[ 0.285770602	0.254451335 0.246486562 | 0.254451335 0.285770602 0.254451335 |  0.246486562 0.254451335 0.285770602]
~ cmatrix=[15 | -12 15 | -12 -12 15]
~ Normamps=202  {202 1.25 *}
~ units=kft
~ Neutral=2 Kron=yes    ! eliminate the neutral conductor

// new line codes to connect 3ph loads (from 8500 node test feeder)
New Linecode.3ph_h-2/0_acsr2/0_acsr2/0_acsr2_acsr nphases=3  Units=km
~ Rmatrix=[0.66087  |0.137499  0.653999  |0.142066  0.138518  0.663007  ]
~ Xmatrix=[0.869947  |0.388579  0.878528  |0.366115  0.405953  0.8673  ]
~ Cmatrix=[8.3452  |-2.31601  8.72099  |-1.91256  -2.71715  8.57671  ]

New Linecode.3ph_h-397_acsr397_acsr397_acsr397_acsr nphases=3  Units=km
~ Rmatrix=[0.214162  |0.0557957  0.212131  |0.0571636  0.0560892  0.214801  ]
~ Xmatrix=[0.634957  |0.27487  0.652375  |0.246528  0.29092  0.629544  ]
~ Cmatrix=[9.13606  |-2.66777  9.62226  |-2.17646  -3.15664  9.43197  ]


// From http://sourceforge.net/p/electricdss/code/HEAD/tree/trunk/Distrib/Examples/Scripts/Triplex_Linecodes.txt
// kron reduction eliminates the neutral conductor . If left in define terminals as .ph1.ph2.0
//Note from RD: some users have made the error of performing the Kron reduction twice on the triplex matrix when they only 
// want to model the line as a single-phase equivalent. However, this effectively parallels the neutral and one of 
// the phase conductors in the return path, making the single-phase impedance about half of what it should be.
New Linecode.6 nphases=3 Units=kft
~ rmatrix=[0.757254091 0.018049545 0.018049545 | 0.018049545 0.757254091 0.018049545 | 0.018049545 0.018049545 0.757254091] 
~ xmatrix=[0.301700148 0.270380881 0.262416108 | 0.270380881 0.301700148 0.270380881 | 0.262416108 0.270380881 0.301700148]
~ cmatrix=[15 | -12 15 | -12 -12 15]
~ Normamps=65  {65 1.25 *}
~ Neutral=2 Kron=Y 

New Linecode.4 nphases=3 Units=kft
~ rmatrix=[0.482632879 0.018049545 0.0180495455 | 0.018049545 0.482632879 0.018049545 | 0.018049545 0.018049545 0.482632879] 
~ xmatrix=[0.296365866 0.265053738 0.257088964 | 0.265053738 0.296365866 0.265053738 | 0.257088964 0.265053738 0.296365866]
~ cmatrix=[15 | -12 15 | -12 -12 15]
~ Normamps=90  {90 1.25 *}
~ Neutral=2 Kron=Y 

New Linecode.2 nphases=3 Units=kft
~ rmatrix=[0.309905606 0.018049545 0.018049545 | 0.018049545 0.309905606 0.018049545 | 0.018049545 0.018049545 0.309905606] 
~ xmatrix=[0.291028536 0.25976762 0.251802847 | 0.25976762 0.291028536 0.25976762 | 0.251802847 0.25976762 0.291028536]
~ cmatrix=[15 | -12 15 | -12 -12 15]
~ Normamps=156  {156 1.25 *}
~ Neutral=2 Kron=Y 

New Linecode.1 nphases=3 Units=kft
~ rmatrix=[ 0.249867727 0.018049545 0.018049545 | 0.018049545 0.249867727 0.018049545 | 0.018049545 0.018049545 0.249867727] 
~ xmatrix=[0.288376719 0.257095798 0.249131025 | 0.257095798 0.288376719 0.257095798 |  0.249131025 0.257095798 0.288376719]
~ cmatrix=[15 | -12 15 | -12 -12 15]
~ Normamps=177  {177 1.25 *}
~ Neutral=2 Kron=Y 

New Linecode.1/0 nphases=3 Units=kft
~ rmatrix=[0.201761667 0.018049545 0.018049545 | 0.018049545 0.201761667 0.018049545 | 0.018049545 0.018049545 0.201761667] 
~ xmatrix=[ 0.285770602	0.254451335 0.246486562 | 0.254451335 0.285770602 0.254451335 |  0.246486562 0.254451335 0.285770602]
~ cmatrix=[15 | -12 15 | -12 -12 15]
~ Normamps=202  {202 1.25 *}
~ Neutral=2 Kron=Y 

New Linecode.2/0 nphases=3 Units=kft
~ rmatrix=[ 0.163693485 0.018049545 0.018049545 | 0.018049545 0.163693485 0.018049545 | 0.018049545 0.018049545 0.163693485] 
~ xmatrix=[0.283040781 0.251744507 0.243779734 | 0.251744507 0.283040781 0.251744507 | 0.243779734 0.251744507 0.283040781]
~ cmatrix=[15 | -12 15 | -12 -12 15]
~ Normamps=230  {230 1.25 *}
~ Neutral=2 Kron=Y 

New Linecode.3/0 nphases=3 Units=kft
~ rmatrix=[ 0.133769242 0.018049545 0.018049545 | 0.018049545 0.133769242 0.018049545 | 0.018049545 0.018049545 0.133769242] 
~ xmatrix=[ 0.28043632 0.249124191 0.241159418 | 0.249124191 0.28043632 0.249124191 | 0.241159418 0.249124191 0.28043632]
~ cmatrix=[15 | -12 15 | -12 -12 15]
~ Normamps=263  {263 1.25 *}
~ Neutral=2 Kron=Y 

New Linecode.4/0 nphases=3 Units=kft
~ rmatrix=[ 0.109716212 0.018049545 0.018049545 | 0.018049545 0.109716212 0.018049545 | 0.018049545 0.018049545 0.109716212] 
~ xmatrix=[ 0.27765665 0.246417363 0.23845259 | 0.246417363 0.27765665 0.246417363 | 0.23845259 0.246417363 0.27765665]
~ cmatrix=[15 | -12 15 | -12 -12 15]
~ Normamps=299  {299 1.25 *}
~ Neutral=2 Kron=Y 

New Linecode.350  nphases=3 Units=kft
~ rmatrix=[0.073731364 0.018049545 0.018049545 | 0.018049545 0.073731364 0.018049545 |0.018049545 0.018049545 0.073731364]  
~ xmatrix=[ 0.270684507 0.240374302 0.232409529 | 0.240374302 0.270684507 0.240374302 | 0.232409529 0.240374302 0.270684507 ]
~ cmatrix=[15 | -12 15 | -12 -12 15]
~ Normamps=399  {399 1.25 *}
~ Neutral=2 Kron=Y 

New Linecode.500  nphases=3 Units=kft
~ rmatrix=[0.057064697 0.018049545 0.018049545 | 0.018049545 0.057064697 0.018049545 | 0.018049545 0.018049545 0.057064697]  
~ xmatrix=[ 0.266209885 0.236235109 0.228270336 | 0.236235109 0.266209885 0.236235109 | 0.228270336 0.236235109 0.266209885]
~ cmatrix=[15 | -12 15 | -12 -12 15]
~ NormAmps=483 {483 1.25 *}  
~ Neutral=2 Kron=Y 

