examples/Custom_controls_example/DSSfiles/Diamond_dss/newswitches.dss
New Line.Switch_GS0549-3_05060$45148276_05060 Phases=3 bus1=GS0549-3_05060.1.2.3 bus2=45148276_05060.1.2.3 Switch = y r1 = 1e-4 x1 =0  r0 =1e-4 x0 = 0 c1 =0 c0 = 0
New Line.Switch_45148260_05060$GS0549-1_05060 Phases=3 bus1=45148260_05060.1.2.3 bus2=GS0549-1_05060.1.2.3 Switch = y r1 = 1e-4 x1 =0  r0 =1e-4 x0 = 0 c1 =0 c0 = 0
New Line.Switch_0253E_05060_1$0253E_05060 Phases=3 bus1=0253E_05060_1.1.2.3 bus2=0253E_05060.1.2.3 Switch = y r1 = 1e-4 x1 =0  r0 =1e-4 x0 = 0 c1 =0 c0 = 0
New Line.Switch_PD0307_05060_1$PD0307_05060 Phases=3 bus1=PD0307_05060_1.1.2.3 bus2=PD0307_05060.1.2.3 Switch = y r1 = 1e-4 x1 =0  r0 =1e-4 x0 = 0 c1 =0 c0 = 0
New Line.Switch_1041602ET1_05060_1$1041602ET1_05 Phases=2 bus1=1041602ET1_05060_1.1.2 bus2=1041602ET1_05060.1.2 Switch = y r1 = 1e-4 x1 =0  r0 =1e-4 x0 = 0 c1 =0 c0 = 0
New Line.Switch_611401ET1_05060_1$611401ET1_0506 Phases=2 bus1=611401ET1_05060_1.1.2 bus2=611401ET1_05060.1.2 Switch = y r1 = 1e-4 x1 =0  r0 =1e-4 x0 = 0 c1 =0 c0 = 0
New Line.Switch_611401ET2_05060$611401ET2_05060_ Phases=2 bus1=611401ET2_05060.1.2 bus2=611401ET2_05060_1.1.2 Switch = y r1 = 1e-4 x1 =0  r0 =1e-4 x0 = 0 c1 =0 c0 = 0
New Line.Switch_PH1664_05060_1$PH1664_05060 Phases=2 bus1=PH1664_05060_1.2.3 bus2=PH1664_05060.2.3 Switch = y r1 = 1e-4 x1 =0  r0 =1e-4 x0 = 0 c1 =0 c0 = 0
New Line.Switch_P5378686-2_05060$P5378686_F_0506 Phases=2 bus1=P5378686-2_05060.2.3 bus2=P5378686_F_05060.2.3 Switch = y r1 = 1e-4 x1 =0  r0 =1e-4 x0 = 0 c1 =0 c0 = 0
New Line.Switch_PH2369_05060_1$PH2369_05060 Phases=2 bus1=PH2369_05060_1.2.3 bus2=PH2369_05060.2.3 Switch = y r1 = 1e-4 x1 =0  r0 =1e-4 x0 = 0 c1 =0 c0 = 0
New Line.Switch_P5378650-1_05060$P5378650_F_0506 Phases=2 bus1=P5378650-1_05060.2.3 bus2=P5378650_F_05060.2.3 Switch = y r1 = 1e-4 x1 =0  r0 =1e-4 x0 = 0 c1 =0 c0 = 0
New Line.Switch_PD0009_05060$PD0009_05060_1 Phases=3 bus1=PD0009_05060.1.2.3 bus2=PD0009_05060_1.1.2.3 Switch = y r1 = 1e-4 x1 =0  r0 =1e-4 x0 = 0 c1 =0 c0 = 0
//New Line.Switch_PD0008_05060$PD0008_05060_1 Phases=3 bus1=PD0008_05060.1.2.3 bus2=PD0008_05060_1.1.2.3 Switch = y r1 = 1e-4 x1 =0  r0 =1e-4 x0 = 0 c1 =0 c0 = 0
New Line.Switch_1379799E_05060$1379799E_05060_1 Phases=2 bus1=1379799E_05060.2.3 bus2=1379799E_05060_1.2.3 Switch = y r1 = 1e-4 x1 =0  r0 =1e-4 x0 = 0 c1 =0 c0 = 0
New Line.Switch_BF27787_05060$BF27787_05060_1 Phases=2 bus1=BF27787_05060.2.3 bus2=BF27787_05060_1.2.3 Switch = y r1 = 1e-4 x1 =0  r0 =1e-4 x0 = 0 c1 =0 c0 = 0
New Line.Switch_1379802E_05060_1$1379802E_05060 Phases=2 bus1=1379802E_05060_1.2.3 bus2=1379802E_05060.2.3 Switch = y r1 = 1e-4 x1 =0  r0 =1e-4 x0 = 0 c1 =0 c0 = 0
New Line.Switch_PD0005_05060$PD0005_05060_1 Phases=3 bus1=PD0005_05060.1.2.3 bus2=PD0005_05060_1.1.2.3 Switch = y r1 = 1e-4 x1 =0  r0 =1e-4 x0 = 0 c1 =0 c0 = 0
New Line.Switch_1172851ET1_05060$1172851ET1_0506 Phases=2 bus1=1172851ET1_05060.1.3 bus2=1172851ET1_05060_1.1.3 Switch = y r1 = 1e-4 x1 =0  r0 =1e-4 x0 = 0 c1 =0 c0 = 0
New Line.Switch_533712E_05060$533712E_05060_1 Phases=2 bus1=533712E_05060.1.2 bus2=533712E_05060_1.1.2 Switch = y r1 = 1e-4 x1 =0  r0 =1e-4 x0 = 0 c1 =0 c0 = 0
New Line.Switch_PD0172_05060$PD0172_05060_1 Phases=3 bus1=PD0172_05060.1.2.3 bus2=PD0172_05060_1.1.2.3 Switch = y r1 = 1e-4 x1 =0  r0 =1e-4 x0 = 0 c1 =0 c0 = 0
New Line.Switch_154943EPH_05060_1$154943EPH_0506 Phases=2 bus1=154943EPH_05060_1.1.3 bus2=154943EPH_05060.1.3 Switch = y r1 = 1e-4 x1 =0  r0 =1e-4 x0 = 0 c1 =0 c0 = 0
New Line.Switch_P5448478-1_05060$P5448478-1_T_05 Phases=2 bus1=P5448478-1_05060.1.3 bus2=P5448478-1_T_05060.1.3 Switch = y r1 = 1e-4 x1 =0  r0 =1e-4 x0 = 0 c1 =0 c0 = 0
New Line.Switch_665260E_05060_1$665260E_05060 Phases=2 bus1=665260E_05060_1.2.3 bus2=665260E_05060.2.3 Switch = y r1 = 1e-4 x1 =0  r0 =1e-4 x0 = 0 c1 =0 c0 = 0
New Line.Switch_P5436258-2_05060$P5436258_F_0506 Phases=2 bus1=P5436258-2_05060.2.3 bus2=P5436258_F_05060.2.3 Switch = y r1 = 1e-4 x1 =0  r0 =1e-4 x0 = 0 c1 =0 c0 = 0
New Line.Switch_665261E_05060$665261E_05060_1 Phases=2 bus1=665261E_05060.2.3 bus2=665261E_05060_1.2.3 Switch = y r1 = 1e-4 x1 =0  r0 =1e-4 x0 = 0 c1 =0 c0 = 0
New Line.Switch_P5378783-1_05060$P5378783_F_0506 Phases=2 bus1=P5378783-1_05060.2.3 bus2=P5378783_F_05060.2.3 Switch = y r1 = 1e-4 x1 =0  r0 =1e-4 x0 = 0 c1 =0 c0 = 0
New Line.Switch_N0506008_05060$N0506008_05060_1 Phases=2 bus1=N0506008_05060.1.3 bus2=N0506008_05060_1.1.3 Switch = y r1 = 1e-4 x1 =0  r0 =1e-4 x0 = 0 c1 =0 c0 = 0
New Line.Switch_4082118E_05060_1$4082118E_05060 Phases=2 bus1=4082118E_05060_1.1.3 bus2=4082118E_05060.1.3 Switch = y r1 = 1e-4 x1 =0  r0 =1e-4 x0 = 0 c1 =0 c0 = 0
New Line.Switch_P5378763-1_05060$P5378763_F_0506 Phases=2 bus1=P5378763-1_05060.1.3 bus2=P5378763_F_05060.1.3 Switch = y r1 = 1e-4 x1 =0  r0 =1e-4 x0 = 0 c1 =0 c0 = 0
New Line.Switch_1041606E_05060_1$1041606E_05060 Phases=2 bus1=1041606E_05060_1.2.3 bus2=1041606E_05060.2.3 Switch = y r1 = 1e-4 x1 =0  r0 =1e-4 x0 = 0 c1 =0 c0 = 0
New Line.Switch_1379769E_05060_1$1379769E_05060 Phases=2 bus1=1379769E_05060_1.2.3 bus2=1379769E_05060.2.3 Switch = y r1 = 1e-4 x1 =0  r0 =1e-4 x0 = 0 c1 =0 c0 = 0
New Line.Switch_45149512_05060$45149512_05060_1 Phases=2 bus1=45149512_05060.2.3 bus2=45149512_05060_1.2.3 Switch = y r1 = 1e-4 x1 =0  r0 =1e-4 x0 = 0 c1 =0 c0 = 0
New Line.Switch_P5514758-1_05060$P5514758-1_T_05 Phases=2 bus1=P5514758-1_05060.2.3 bus2=P5514758-1_T_05060.2.3 Switch = y r1 = 1e-4 x1 =0  r0 =1e-4 x0 = 0 c1 =0 c0 = 0
New Line.Switch_GS0549-2_05060$GS0549-2_05060_1 Phases=3 bus1=GS0549-2_05060.1.2.3 bus2=GS0549-2_05060_1.1.2.3 Switch = y r1 = 1e-4 x1 =0  r0 =1e-4 x0 = 0 c1 =0 c0 = 0
New Line.Switch_182E_05060_1$182E_05060 Phases=3 bus1=182E_05060_1.1.2.3 bus2=182E_05060.1.2.3 Switch = y r1 = 1e-4 x1 =0  r0 =1e-4 x0 = 0 c1 =0 c0 = 0
New Line.Switch_PD0010_05060_1$PD0010_05060-1 Phases=3 bus1=PD0010_05060_1.1.2.3 bus2=PD0010_05060.1.2.3 Switch = y r1 = 1e-4 x1 =0  r0 =1e-4 x0 = 0 c1 =0 c0 = 0