examples/Custom_controls_example/DSSfiles/Diamond_dss/NewSecondaries.dss
New Line.SL_1323503E-B_1 phases=1 bus1=X_1323503E_T_05060.2 bus2=X_1323503E_T_05060_SLD_1.2 linecode=1/0_AL_TRIPLEX_1PH length=125 units=ft
New Line.SL_1323503E-B_2 phases=1 bus1=X_1323503E_T_05060.2 bus2=X_1323503E_T_05060_SLD_2.2 linecode=1/0_AL_TRIPLEX_1PH length=125 units=ft
New Line.SL_1323503E-B_3 phases=1 bus1=X_1323503E_T_05060.2 bus2=X_1323503E_T_05060_SLD_3.2 linecode=1/0_AL_TRIPLEX_1PH length=125 units=ft
New Line.SL_1323503E-B_4 phases=1 bus1=X_1323503E_T_05060.2 bus2=X_1323503E_T_05060_SLD_4.2 linecode=1/0_AL_TRIPLEX_1PH length=125 units=ft
New Line.SL_4417776E-ABC_1 phases=3 bus1=X_4417776E_T_05060.1.2.3 bus2=X_4417776E_T_05060_SLD_1.1.2.3 linecode=3ph_h-2/0_acsr2/0_acsr2/0_acsr2_acsr length=125 units=ft
New Line.SL_4417776E-ABC_2 phases=3 bus1=X_4417776E_T_05060.1.2.3 bus2=X_4417776E_T_05060_SLD_2.1.2.3 linecode=3ph_h-2/0_acsr2/0_acsr2/0_acsr2_acsr length=125 units=ft
New Line.SL_4417776E-ABC_3 phases=3 bus1=X_4417776E_T_05060.1.2.3 bus2=X_4417776E_T_05060_SLD_3.1.2.3 linecode=3ph_h-2/0_acsr2/0_acsr2/0_acsr2_acsr length=125 units=ft
New Line.SL_4417776E-ABC_4 phases=3 bus1=X_4417776E_T_05060.1.2.3 bus2=X_4417776E_T_05060_SLD_4.1.2.3 linecode=3ph_h-2/0_acsr2/0_acsr2/0_acsr2_acsr length=125 units=ft
New Line.SL_4417776E-ABC_5 phases=3 bus1=X_4417776E_T_05060.1.2.3 bus2=X_4417776E_T_05060_SLD_5.1.2.3 linecode=3ph_h-2/0_acsr2/0_acsr2/0_acsr2_acsr length=125 units=ft
New Line.SL_121642E-ABC_1 phases=3 bus1=X_121642E_T_05060.1.2.3 bus2=X_121642E_T_05060_SLD_1.1.2.3 linecode=3ph_h-2/0_acsr2/0_acsr2/0_acsr2_acsr length=125 units=ft
New Line.SL_121642E-ABC_2 phases=3 bus1=X_121642E_T_05060.1.2.3 bus2=X_121642E_T_05060_SLD_2.1.2.3 linecode=3ph_h-2/0_acsr2/0_acsr2/0_acsr2_acsr length=125 units=ft
New Line.SL_121642E-ABC_3 phases=3 bus1=X_121642E_T_05060.1.2.3 bus2=X_121642E_T_05060_SLD_3.1.2.3 linecode=3ph_h-2/0_acsr2/0_acsr2/0_acsr2_acsr length=125 units=ft
New Line.SL_533712ET1-A_1 phases=1 bus1=X_533712ET1_T_05060.1 bus2=X_533712ET1_T_05060_SLD_1.1 linecode=1/0_AL_TRIPLEX_1PH length=125 units=ft
New Line.SL_533712ET1-A_2 phases=1 bus1=X_533712ET1_T_05060.1 bus2=X_533712ET1_T_05060_SLD_2.1 linecode=1/0_AL_TRIPLEX_1PH length=125 units=ft
New Line.SL_533712ET1-A_3 phases=1 bus1=X_533712ET1_T_05060.1 bus2=X_533712ET1_T_05060_SLD_3.1 linecode=1/0_AL_TRIPLEX_1PH length=125 units=ft
New Line.SL_4082101E-C_1 phases=1 bus1=X_4082101E_T_05060.3 bus2=X_4082101E_T_05060_SLD_1.3 linecode=1/0_AL_TRIPLEX_1PH length=125 units=ft
New Line.SL_4082101E-C_2 phases=1 bus1=X_4082101E_T_05060.3 bus2=X_4082101E_T_05060_SLD_2.3 linecode=1/0_AL_TRIPLEX_1PH length=125 units=ft
New Line.SL_4082101E-C_3 phases=1 bus1=X_4082101E_T_05060.3 bus2=X_4082101E_T_05060_SLD_3.3 linecode=1/0_AL_TRIPLEX_1PH length=125 units=ft
New Line.SL_1041675E-ABC_1 phases=3 bus1=X_1041675E_T_05060.1.2.3 bus2=X_1041675E_T_05060_SLD_1.1.2.3 linecode=3ph_h-2/0_acsr2/0_acsr2/0_acsr2_acsr length=125 units=ft
New Line.SL_1041675E-ABC_2 phases=3 bus1=X_1041675E_T_05060.1.2.3 bus2=X_1041675E_T_05060_SLD_2.1.2.3 linecode=3ph_h-2/0_acsr2/0_acsr2/0_acsr2_acsr length=125 units=ft
New Line.SL_1006082E-A_1 phases=1 bus1=X_1006082E_T_05060.1 bus2=X_1006082E_T_05060_SLD_1.1 linecode=1/0_AL_TRIPLEX_1PH length=125 units=ft
New Line.SL_1006082E-A_2 phases=1 bus1=X_1006082E_T_05060.1 bus2=X_1006082E_T_05060_SLD_2.1 linecode=1/0_AL_TRIPLEX_1PH length=125 units=ft
New Line.SL_1006082E-A_3 phases=1 bus1=X_1006082E_T_05060.1 bus2=X_1006082E_T_05060_SLD_3.1 linecode=1/0_AL_TRIPLEX_1PH length=125 units=ft
New Line.SL_4160253E-ABC_1 phases=3 bus1=X_4160253E_T_05060.1.2.3 bus2=X_4160253E_T_05060_SLD_1.1.2.3 linecode=3ph_h-2/0_acsr2/0_acsr2/0_acsr2_acsr length=125 units=ft
New Line.SL_4160253E-ABC_2 phases=3 bus1=X_4160253E_T_05060.1.2.3 bus2=X_4160253E_T_05060_SLD_2.1.2.3 linecode=3ph_h-2/0_acsr2/0_acsr2/0_acsr2_acsr length=125 units=ft
New Line.SL_1159236E-B_1 phases=1 bus1=X_1159236E_T_05060.2 bus2=X_1159236E_T_05060_SLD_1.2 linecode=1/0_AL_TRIPLEX_1PH length=125 units=ft
New Line.SL_1159236E-B_2 phases=1 bus1=X_1159236E_T_05060.2 bus2=X_1159236E_T_05060_SLD_2.2 linecode=1/0_AL_TRIPLEX_1PH length=125 units=ft
New Line.SL_1159236E-B_3 phases=1 bus1=X_1159236E_T_05060.2 bus2=X_1159236E_T_05060_SLD_3.2 linecode=1/0_AL_TRIPLEX_1PH length=125 units=ft
New Line.SL_1429043E-B_1 phases=1 bus1=X_1429043E_T_05060.2 bus2=X_1429043E_T_05060_SLD_1.2 linecode=1/0_AL_TRIPLEX_1PH length=125 units=ft
New Line.SL_1429043E-B_2 phases=1 bus1=X_1429043E_T_05060.2 bus2=X_1429043E_T_05060_SLD_2.2 linecode=1/0_AL_TRIPLEX_1PH length=125 units=ft
New Line.SL_1429043E-B_3 phases=1 bus1=X_1429043E_T_05060.2 bus2=X_1429043E_T_05060_SLD_3.2 linecode=1/0_AL_TRIPLEX_1PH length=125 units=ft
New Line.SL_P5378686-B_1 phases=1 bus1=X_P5378686_T_05060.2 bus2=X_P5378686_T_05060_SLD_1.2 linecode=1/0_AL_TRIPLEX_1PH length=125 units=ft
New Line.SL_P5378686-B_2 phases=1 bus1=X_P5378686_T_05060.2 bus2=X_P5378686_T_05060_SLD_2.2 linecode=1/0_AL_TRIPLEX_1PH length=125 units=ft
New Line.SL_P5378686-B_3 phases=1 bus1=X_P5378686_T_05060.2 bus2=X_P5378686_T_05060_SLD_3.2 linecode=1/0_AL_TRIPLEX_1PH length=125 units=ft
New Line.SL_P5378686-B_4 phases=1 bus1=X_P5378686_T_05060.2 bus2=X_P5378686_T_05060_SLD_4.2 linecode=1/0_AL_TRIPLEX_1PH length=125 units=ft
New Line.SL_P5378686-B_5 phases=1 bus1=X_P5378686_T_05060.2 bus2=X_P5378686_T_05060_SLD_5.2 linecode=1/0_AL_TRIPLEX_1PH length=125 units=ft
New Line.SL_P5378686-B_6 phases=1 bus1=X_P5378686_T_05060.2 bus2=X_P5378686_T_05060_SLD_6.2 linecode=1/0_AL_TRIPLEX_1PH length=125 units=ft
New Line.SL_P5378686-B_7 phases=1 bus1=X_P5378686_T_05060.2 bus2=X_P5378686_T_05060_SLD_7.2 linecode=1/0_AL_TRIPLEX_1PH length=125 units=ft
New Line.SL_P5378686-B_8 phases=1 bus1=X_P5378686_T_05060.2 bus2=X_P5378686_T_05060_SLD_8.2 linecode=1/0_AL_TRIPLEX_1PH length=125 units=ft
New Line.SL_1303654E-B_1 phases=1 bus1=X_1303654E_T_05060.2 bus2=X_1303654E_T_05060_SLD_1.2 linecode=1/0_AL_TRIPLEX_1PH length=125 units=ft
New Line.SL_1303654E-B_2 phases=1 bus1=X_1303654E_T_05060.2 bus2=X_1303654E_T_05060_SLD_2.2 linecode=1/0_AL_TRIPLEX_1PH length=125 units=ft
New Line.SL_1303654E-B_3 phases=1 bus1=X_1303654E_T_05060.2 bus2=X_1303654E_T_05060_SLD_3.2 linecode=1/0_AL_TRIPLEX_1PH length=125 units=ft
New Line.SL_4156458E-C_1 phases=1 bus1=X_4156458E_T_05060.3 bus2=X_4156458E_T_05060_SLD_1.3 linecode=1/0_AL_TRIPLEX_1PH length=125 units=ft
New Line.SL_4156458E-C_2 phases=1 bus1=X_4156458E_T_05060.3 bus2=X_4156458E_T_05060_SLD_2.3 linecode=1/0_AL_TRIPLEX_1PH length=125 units=ft
New Line.SL_4156458E-C_3 phases=1 bus1=X_4156458E_T_05060.3 bus2=X_4156458E_T_05060_SLD_3.3 linecode=1/0_AL_TRIPLEX_1PH length=125 units=ft
New Line.SL_4156458E-C_4 phases=1 bus1=X_4156458E_T_05060.3 bus2=X_4156458E_T_05060_SLD_4.3 linecode=1/0_AL_TRIPLEX_1PH length=125 units=ft
New Line.SL_P5378763-C_1 phases=1 bus1=X_P5378763_T_05060.3 bus2=X_P5378763_T_05060_SLD_1.3 linecode=1/0_AL_TRIPLEX_1PH length=125 units=ft
New Line.SL_P5378763-C_2 phases=1 bus1=X_P5378763_T_05060.3 bus2=X_P5378763_T_05060_SLD_2.3 linecode=1/0_AL_TRIPLEX_1PH length=125 units=ft
New Line.SL_P5378763-C_3 phases=1 bus1=X_P5378763_T_05060.3 bus2=X_P5378763_T_05060_SLD_3.3 linecode=1/0_AL_TRIPLEX_1PH length=125 units=ft
New Line.SL_P5378763-C_4 phases=1 bus1=X_P5378763_T_05060.3 bus2=X_P5378763_T_05060_SLD_4.3 linecode=1/0_AL_TRIPLEX_1PH length=125 units=ft
New Line.SL_P5378763-C_5 phases=1 bus1=X_P5378763_T_05060.3 bus2=X_P5378763_T_05060_SLD_5.3 linecode=1/0_AL_TRIPLEX_1PH length=125 units=ft
New Line.SL_P5378763-C_6 phases=1 bus1=X_P5378763_T_05060.3 bus2=X_P5378763_T_05060_SLD_6.3 linecode=1/0_AL_TRIPLEX_1PH length=125 units=ft
New Line.SL_P5378763-C_7 phases=1 bus1=X_P5378763_T_05060.3 bus2=X_P5378763_T_05060_SLD_7.3 linecode=1/0_AL_TRIPLEX_1PH length=125 units=ft
New Line.SL_P5378763-C_8 phases=1 bus1=X_P5378763_T_05060.3 bus2=X_P5378763_T_05060_SLD_8.3 linecode=1/0_AL_TRIPLEX_1PH length=125 units=ft
New Line.SL_P5378763-C_9 phases=1 bus1=X_P5378763_T_05060.3 bus2=X_P5378763_T_05060_SLD_9.3 linecode=1/0_AL_TRIPLEX_1PH length=125 units=ft
New Line.SL_P5378763-C_10 phases=1 bus1=X_P5378763_T_05060.3 bus2=X_P5378763_T_05060_SLD_10.3 linecode=1/0_AL_TRIPLEX_1PH length=125 units=ft
New Line.SL_861693E-A_1 phases=1 bus1=X_861693E_T_05060.1 bus2=X_861693E_T_05060_SLD_1.1 linecode=1/0_AL_TRIPLEX_1PH length=125 units=ft
New Line.SL_861693E-A_2 phases=1 bus1=X_861693E_T_05060.1 bus2=X_861693E_T_05060_SLD_2.1 linecode=1/0_AL_TRIPLEX_1PH length=125 units=ft
New Line.SL_861693E-A_3 phases=1 bus1=X_861693E_T_05060.1 bus2=X_861693E_T_05060_SLD_3.1 linecode=1/0_AL_TRIPLEX_1PH length=125 units=ft
New Line.SL_861690E-A_1 phases=1 bus1=X_861690E_T_05060.1 bus2=X_861690E_T_05060_SLD_1.1 linecode=1/0_AL_TRIPLEX_1PH length=125 units=ft
New Line.SL_861690E-A_2 phases=1 bus1=X_861690E_T_05060.1 bus2=X_861690E_T_05060_SLD_2.1 linecode=1/0_AL_TRIPLEX_1PH length=125 units=ft
New Line.SL_861690E-A_3 phases=1 bus1=X_861690E_T_05060.1 bus2=X_861690E_T_05060_SLD_3.1 linecode=1/0_AL_TRIPLEX_1PH length=125 units=ft
New Line.SL_861690E-A_4 phases=1 bus1=X_861690E_T_05060.1 bus2=X_861690E_T_05060_SLD_4.1 linecode=1/0_AL_TRIPLEX_1PH length=125 units=ft
New Line.SL_861690E-A_5 phases=1 bus1=X_861690E_T_05060.1 bus2=X_861690E_T_05060_SLD_5.1 linecode=1/0_AL_TRIPLEX_1PH length=125 units=ft
New Line.SL_P5378783-B_1 phases=1 bus1=X_P5378783_T_05060.2 bus2=X_P5378783_T_05060_SLD_1.2 linecode=1/0_AL_TRIPLEX_1PH length=125 units=ft
New Line.SL_P5378783-B_2 phases=1 bus1=X_P5378783_T_05060.2 bus2=X_P5378783_T_05060_SLD_2.2 linecode=1/0_AL_TRIPLEX_1PH length=125 units=ft
New Line.SL_P5378783-B_3 phases=1 bus1=X_P5378783_T_05060.2 bus2=X_P5378783_T_05060_SLD_3.2 linecode=1/0_AL_TRIPLEX_1PH length=125 units=ft
New Line.SL_P5378783-B_4 phases=1 bus1=X_P5378783_T_05060.2 bus2=X_P5378783_T_05060_SLD_4.2 linecode=1/0_AL_TRIPLEX_1PH length=125 units=ft
New Line.SL_P5378783-B_5 phases=1 bus1=X_P5378783_T_05060.2 bus2=X_P5378783_T_05060_SLD_5.2 linecode=1/0_AL_TRIPLEX_1PH length=125 units=ft
New Line.SL_585493H-ABC_1 phases=3 bus1=X_585493H_T_05060.1.2.3 bus2=X_585493H_T_05060_SLD_1.1.2.3 linecode=3ph_h-397_acsr397_acsr397_acsr397_acsr length=125 units=ft
New Line.SL_585493H-ABC_2 phases=3 bus1=X_585493H_T_05060.1.2.3 bus2=X_585493H_T_05060_SLD_2.1.2.3 linecode=3ph_h-397_acsr397_acsr397_acsr397_acsr length=125 units=ft
New Line.SL_4591398E-ABC_1 phases=3 bus1=X_4591398E_T_05060.1.2.3 bus2=X_4591398E_T_05060_SLD_1.1.2.3 linecode=3ph_h-2/0_acsr2/0_acsr2/0_acsr2_acsr length=125 units=ft
New Line.SL_4591398E-ABC_2 phases=3 bus1=X_4591398E_T_05060.1.2.3 bus2=X_4591398E_T_05060_SLD_2.1.2.3 linecode=3ph_h-2/0_acsr2/0_acsr2/0_acsr2_acsr length=125 units=ft
New Line.SL_132337H-A_1 phases=1 bus1=X_132337H_T_05060.1 bus2=X_132337H_T_05060_SLD_1.1 linecode=1/0_AL_TRIPLEX_1PH length=125 units=ft
New Line.SL_132337H-A_2 phases=1 bus1=X_132337H_T_05060.1 bus2=X_132337H_T_05060_SLD_2.1 linecode=1/0_AL_TRIPLEX_1PH length=125 units=ft
New Line.SL_132337H-A_3 phases=1 bus1=X_132337H_T_05060.1 bus2=X_132337H_T_05060_SLD_3.1 linecode=1/0_AL_TRIPLEX_1PH length=125 units=ft
New Line.SL_P5378650-B_1 phases=1 bus1=X_P5378650_T_05060.2 bus2=X_P5378650_T_05060_SLD_1.2 linecode=1/0_AL_TRIPLEX_1PH length=125 units=ft
New Line.SL_P5378650-B_2 phases=1 bus1=X_P5378650_T_05060.2 bus2=X_P5378650_T_05060_SLD_2.2 linecode=1/0_AL_TRIPLEX_1PH length=125 units=ft
New Line.SL_P5378650-B_3 phases=1 bus1=X_P5378650_T_05060.2 bus2=X_P5378650_T_05060_SLD_3.2 linecode=1/0_AL_TRIPLEX_1PH length=125 units=ft
New Line.SL_P5378650-B_4 phases=1 bus1=X_P5378650_T_05060.2 bus2=X_P5378650_T_05060_SLD_4.2 linecode=1/0_AL_TRIPLEX_1PH length=125 units=ft
New Line.SL_P5378650-B_5 phases=1 bus1=X_P5378650_T_05060.2 bus2=X_P5378650_T_05060_SLD_5.2 linecode=1/0_AL_TRIPLEX_1PH length=125 units=ft
New Line.SL_P5378650-B_6 phases=1 bus1=X_P5378650_T_05060.2 bus2=X_P5378650_T_05060_SLD_6.2 linecode=1/0_AL_TRIPLEX_1PH length=125 units=ft
New Line.SL_P5378650-B_7 phases=1 bus1=X_P5378650_T_05060.2 bus2=X_P5378650_T_05060_SLD_7.2 linecode=1/0_AL_TRIPLEX_1PH length=125 units=ft
New Line.SL_P5378650-B_8 phases=1 bus1=X_P5378650_T_05060.2 bus2=X_P5378650_T_05060_SLD_8.2 linecode=1/0_AL_TRIPLEX_1PH length=125 units=ft
New Line.SL_P5378650-B_9 phases=1 bus1=X_P5378650_T_05060.2 bus2=X_P5378650_T_05060_SLD_9.2 linecode=1/0_AL_TRIPLEX_1PH length=125 units=ft
New Line.SL_P5378650-B_10 phases=1 bus1=X_P5378650_T_05060.2 bus2=X_P5378650_T_05060_SLD_10.2 linecode=1/0_AL_TRIPLEX_1PH length=125 units=ft
New Line.SL_4332023E-ABC_1 phases=3 bus1=X_4332023E_T_05060.1.2.3 bus2=X_4332023E_T_05060_SLD_1.1.2.3 linecode=3ph_h-2/0_acsr2/0_acsr2/0_acsr2_acsr length=125 units=ft
New Line.SL_4332023E-ABC_2 phases=3 bus1=X_4332023E_T_05060.1.2.3 bus2=X_4332023E_T_05060_SLD_2.1.2.3 linecode=3ph_h-2/0_acsr2/0_acsr2/0_acsr2_acsr length=125 units=ft
New Line.SL_4332023E-ABC_3 phases=3 bus1=X_4332023E_T_05060.1.2.3 bus2=X_4332023E_T_05060_SLD_3.1.2.3 linecode=3ph_h-2/0_acsr2/0_acsr2/0_acsr2_acsr length=125 units=ft
New Line.SL_1173075E-ABC_1 phases=3 bus1=X_1173075E_T_05060.1.2.3 bus2=X_1173075E_T_05060_SLD_1.1.2.3 linecode=3ph_h-397_acsr397_acsr397_acsr397_acsr length=125 units=ft
New Line.SL_1130137E-A_1 phases=1 bus1=X_1130137E_T_05060.1 bus2=X_1130137E_T_05060_SLD_1.1 linecode=1/0_AL_TRIPLEX_1PH length=125 units=ft
New Line.SL_1130137E-A_2 phases=1 bus1=X_1130137E_T_05060.1 bus2=X_1130137E_T_05060_SLD_2.1 linecode=1/0_AL_TRIPLEX_1PH length=125 units=ft
New Line.SL_437741E-C_1 phases=1 bus1=X_437741E_T_05060.3 bus2=X_437741E_T_05060_SLD_1.3 linecode=1/0_AL_TRIPLEX_1PH length=125 units=ft
New Line.SL_437741E-C_2 phases=1 bus1=X_437741E_T_05060.3 bus2=X_437741E_T_05060_SLD_2.3 linecode=1/0_AL_TRIPLEX_1PH length=125 units=ft
New Line.SL_437741E-C_3 phases=1 bus1=X_437741E_T_05060.3 bus2=X_437741E_T_05060_SLD_3.3 linecode=1/0_AL_TRIPLEX_1PH length=125 units=ft
New Line.SL_437741E-C_4 phases=1 bus1=X_437741E_T_05060.3 bus2=X_437741E_T_05060_SLD_4.3 linecode=1/0_AL_TRIPLEX_1PH length=125 units=ft
New Line.SL_861689E-A_1 phases=1 bus1=X_861689E_T_05060.1 bus2=X_861689E_T_05060_SLD_1.1 linecode=1/0_AL_TRIPLEX_1PH length=125 units=ft
New Line.SL_861689E-A_2 phases=1 bus1=X_861689E_T_05060.1 bus2=X_861689E_T_05060_SLD_2.1 linecode=1/0_AL_TRIPLEX_1PH length=125 units=ft
New Line.SL_861689E-A_3 phases=1 bus1=X_861689E_T_05060.1 bus2=X_861689E_T_05060_SLD_3.1 linecode=1/0_AL_TRIPLEX_1PH length=125 units=ft
New Line.SL_1041678E-ABC_1 phases=3 bus1=X_1041678E_T_05060.1.2.3 bus2=X_1041678E_T_05060_SLD_1.1.2.3 linecode=3ph_h-2/0_acsr2/0_acsr2/0_acsr2_acsr length=125 units=ft
New Line.SL_1041678E-ABC_2 phases=3 bus1=X_1041678E_T_05060.1.2.3 bus2=X_1041678E_T_05060_SLD_2.1.2.3 linecode=3ph_h-2/0_acsr2/0_acsr2/0_acsr2_acsr length=125 units=ft
New Line.SL_1159233E-B_1 phases=1 bus1=X_1159233E_T_05060.2 bus2=X_1159233E_T_05060_SLD_1.2 linecode=1/0_AL_TRIPLEX_1PH length=125 units=ft
New Line.SL_1159233E-B_2 phases=1 bus1=X_1159233E_T_05060.2 bus2=X_1159233E_T_05060_SLD_2.2 linecode=1/0_AL_TRIPLEX_1PH length=125 units=ft
New Line.SL_1006079E-A_1 phases=1 bus1=X_1006079E_T_05060.1 bus2=X_1006079E_T_05060_SLD_1.1 linecode=1/0_AL_TRIPLEX_1PH length=125 units=ft
New Line.SL_1006079E-A_2 phases=1 bus1=X_1006079E_T_05060.1 bus2=X_1006079E_T_05060_SLD_2.1 linecode=1/0_AL_TRIPLEX_1PH length=125 units=ft
New Line.SL_1006079E-A_3 phases=1 bus1=X_1006079E_T_05060.1 bus2=X_1006079E_T_05060_SLD_3.1 linecode=1/0_AL_TRIPLEX_1PH length=125 units=ft
New Line.SL_500424E-ABC_1 phases=3 bus1=X_500424E_T_05060.1.2.3 bus2=X_500424E_T_05060_SLD_1.1.2.3 linecode=3ph_h-2/0_acsr2/0_acsr2/0_acsr2_acsr length=125 units=ft
New Line.SL_500424E-ABC_2 phases=3 bus1=X_500424E_T_05060.1.2.3 bus2=X_500424E_T_05060_SLD_2.1.2.3 linecode=3ph_h-2/0_acsr2/0_acsr2/0_acsr2_acsr length=125 units=ft
New Line.SL_500424E-ABC_3 phases=3 bus1=X_500424E_T_05060.1.2.3 bus2=X_500424E_T_05060_SLD_3.1.2.3 linecode=3ph_h-2/0_acsr2/0_acsr2/0_acsr2_acsr length=125 units=ft
New Line.SL_1324616E-A_1 phases=1 bus1=X_1324616E_T_05060.1 bus2=X_1324616E_T_05060_SLD_1.1 linecode=1/0_AL_TRIPLEX_1PH length=125 units=ft
New Line.SL_1324616E-A_2 phases=1 bus1=X_1324616E_T_05060.1 bus2=X_1324616E_T_05060_SLD_2.1 linecode=1/0_AL_TRIPLEX_1PH length=125 units=ft
New Line.SL_1324616E-A_3 phases=1 bus1=X_1324616E_T_05060.1 bus2=X_1324616E_T_05060_SLD_3.1 linecode=1/0_AL_TRIPLEX_1PH length=125 units=ft
New Line.SL_216253E-C_1 phases=1 bus1=X_216253E_T_05060.3 bus2=X_216253E_T_05060_SLD_1.3 linecode=1/0_AL_TRIPLEX_1PH length=125 units=ft
New Line.SL_216253E-C_2 phases=1 bus1=X_216253E_T_05060.3 bus2=X_216253E_T_05060_SLD_2.3 linecode=1/0_AL_TRIPLEX_1PH length=125 units=ft
New Line.SL_216253E-C_3 phases=1 bus1=X_216253E_T_05060.3 bus2=X_216253E_T_05060_SLD_3.3 linecode=1/0_AL_TRIPLEX_1PH length=125 units=ft
New Line.SL_216253E-C_4 phases=1 bus1=X_216253E_T_05060.3 bus2=X_216253E_T_05060_SLD_4.3 linecode=1/0_AL_TRIPLEX_1PH length=125 units=ft
New Line.SL_216253E-C_5 phases=1 bus1=X_216253E_T_05060.3 bus2=X_216253E_T_05060_SLD_5.3 linecode=1/0_AL_TRIPLEX_1PH length=125 units=ft
New Line.SL_216253E-C_6 phases=1 bus1=X_216253E_T_05060.3 bus2=X_216253E_T_05060_SLD_6.3 linecode=1/0_AL_TRIPLEX_1PH length=125 units=ft
New Line.SL_216253E-C_7 phases=1 bus1=X_216253E_T_05060.3 bus2=X_216253E_T_05060_SLD_7.3 linecode=1/0_AL_TRIPLEX_1PH length=125 units=ft
New Line.SL_216253E-C_8 phases=1 bus1=X_216253E_T_05060.3 bus2=X_216253E_T_05060_SLD_8.3 linecode=1/0_AL_TRIPLEX_1PH length=125 units=ft
New Line.SL_523427E-ABC_1 phases=3 bus1=X_523427E_T_05060.1.2.3 bus2=X_523427E_T_05060_SLD_1.1.2.3 linecode=3ph_h-2/0_acsr2/0_acsr2/0_acsr2_acsr length=125 units=ft
New Line.SL_523427E-ABC_2 phases=3 bus1=X_523427E_T_05060.1.2.3 bus2=X_523427E_T_05060_SLD_2.1.2.3 linecode=3ph_h-2/0_acsr2/0_acsr2/0_acsr2_acsr length=125 units=ft
New Line.SL_523427E-ABC_3 phases=3 bus1=X_523427E_T_05060.1.2.3 bus2=X_523427E_T_05060_SLD_3.1.2.3 linecode=3ph_h-2/0_acsr2/0_acsr2/0_acsr2_acsr length=125 units=ft
New Line.SL_523427E-ABC_4 phases=3 bus1=X_523427E_T_05060.1.2.3 bus2=X_523427E_T_05060_SLD_4.1.2.3 linecode=3ph_h-2/0_acsr2/0_acsr2/0_acsr2_acsr length=125 units=ft
New Line.SL_523427E-ABC_5 phases=3 bus1=X_523427E_T_05060.1.2.3 bus2=X_523427E_T_05060_SLD_5.1.2.3 linecode=3ph_h-2/0_acsr2/0_acsr2/0_acsr2_acsr length=125 units=ft
New Line.SL_P5448478-C_1 phases=1 bus1=X_P5448478_T_05060.3 bus2=X_P5448478_T_05060_SLD_1.3 linecode=1/0_AL_TRIPLEX_1PH length=125 units=ft
New Line.SL_P5448478-C_2 phases=1 bus1=X_P5448478_T_05060.3 bus2=X_P5448478_T_05060_SLD_2.3 linecode=1/0_AL_TRIPLEX_1PH length=125 units=ft
New Line.SL_P5448478-C_3 phases=1 bus1=X_P5448478_T_05060.3 bus2=X_P5448478_T_05060_SLD_3.3 linecode=1/0_AL_TRIPLEX_1PH length=125 units=ft
New Line.SL_P5448478-C_4 phases=1 bus1=X_P5448478_T_05060.3 bus2=X_P5448478_T_05060_SLD_4.3 linecode=1/0_AL_TRIPLEX_1PH length=125 units=ft
New Line.SL_P5448478-C_5 phases=1 bus1=X_P5448478_T_05060.3 bus2=X_P5448478_T_05060_SLD_5.3 linecode=1/0_AL_TRIPLEX_1PH length=125 units=ft
New Line.SL_1041722E-A_1 phases=1 bus1=X_1041722E_T_05060.1 bus2=X_1041722E_T_05060_SLD_1.1 linecode=1/0_AL_TRIPLEX_1PH length=125 units=ft
New Line.SL_1041722E-A_2 phases=1 bus1=X_1041722E_T_05060.1 bus2=X_1041722E_T_05060_SLD_2.1 linecode=1/0_AL_TRIPLEX_1PH length=125 units=ft
New Line.SL_1041722E-A_3 phases=1 bus1=X_1041722E_T_05060.1 bus2=X_1041722E_T_05060_SLD_3.1 linecode=1/0_AL_TRIPLEX_1PH length=125 units=ft
New Line.SL_1041722E-A_4 phases=1 bus1=X_1041722E_T_05060.1 bus2=X_1041722E_T_05060_SLD_4.1 linecode=1/0_AL_TRIPLEX_1PH length=125 units=ft
New Line.SL_1429047E-B_1 phases=1 bus1=X_1429047E_T_05060.2 bus2=X_1429047E_T_05060_SLD_1.2 linecode=1/0_AL_TRIPLEX_1PH length=125 units=ft
New Line.SL_P5436258-B_1 phases=1 bus1=X_P5436258_T_05060.2 bus2=X_P5436258_T_05060_SLD_1.2 linecode=1/0_AL_TRIPLEX_1PH length=125 units=ft
New Line.SL_P5436258-B_2 phases=1 bus1=X_P5436258_T_05060.2 bus2=X_P5436258_T_05060_SLD_2.2 linecode=1/0_AL_TRIPLEX_1PH length=125 units=ft
New Line.SL_P5436258-B_3 phases=1 bus1=X_P5436258_T_05060.2 bus2=X_P5436258_T_05060_SLD_3.2 linecode=1/0_AL_TRIPLEX_1PH length=125 units=ft
New Line.SL_P5436258-B_4 phases=1 bus1=X_P5436258_T_05060.2 bus2=X_P5436258_T_05060_SLD_4.2 linecode=1/0_AL_TRIPLEX_1PH length=125 units=ft
New Line.SL_P5436258-B_5 phases=1 bus1=X_P5436258_T_05060.2 bus2=X_P5436258_T_05060_SLD_5.2 linecode=1/0_AL_TRIPLEX_1PH length=125 units=ft
New Line.SL_1041703E-A_1 phases=1 bus1=X_1041703E_T_05060.1 bus2=X_1041703E_T_05060_SLD_1.1 linecode=1/0_AL_TRIPLEX_1PH length=125 units=ft
New Line.SL_1041703E-A_2 phases=1 bus1=X_1041703E_T_05060.1 bus2=X_1041703E_T_05060_SLD_2.1 linecode=1/0_AL_TRIPLEX_1PH length=125 units=ft
New Line.SL_1041703E-A_3 phases=1 bus1=X_1041703E_T_05060.1 bus2=X_1041703E_T_05060_SLD_3.1 linecode=1/0_AL_TRIPLEX_1PH length=125 units=ft
New Line.SL_1041703E-A_4 phases=1 bus1=X_1041703E_T_05060.1 bus2=X_1041703E_T_05060_SLD_4.1 linecode=1/0_AL_TRIPLEX_1PH length=125 units=ft
New Line.SL_1041703E-A_5 phases=1 bus1=X_1041703E_T_05060.1 bus2=X_1041703E_T_05060_SLD_5.1 linecode=1/0_AL_TRIPLEX_1PH length=125 units=ft
New Line.SL_1041703E-A_6 phases=1 bus1=X_1041703E_T_05060.1 bus2=X_1041703E_T_05060_SLD_6.1 linecode=1/0_AL_TRIPLEX_1PH length=125 units=ft
New Line.SL_1041703E-A_7 phases=1 bus1=X_1041703E_T_05060.1 bus2=X_1041703E_T_05060_SLD_7.1 linecode=1/0_AL_TRIPLEX_1PH length=125 units=ft
New Line.SL_1041703E-A_8 phases=1 bus1=X_1041703E_T_05060.1 bus2=X_1041703E_T_05060_SLD_8.1 linecode=1/0_AL_TRIPLEX_1PH length=125 units=ft
New Line.SL_1041703E-A_9 phases=1 bus1=X_1041703E_T_05060.1 bus2=X_1041703E_T_05060_SLD_9.1 linecode=1/0_AL_TRIPLEX_1PH length=125 units=ft
New Line.SL_1041703E-A_10 phases=1 bus1=X_1041703E_T_05060.1 bus2=X_1041703E_T_05060_SLD_10.1 linecode=1/0_AL_TRIPLEX_1PH length=125 units=ft
New Line.SL_861626E-A_1 phases=1 bus1=X_861626E_T_05060.1 bus2=X_861626E_T_05060_SLD_1.1 linecode=1/0_AL_TRIPLEX_1PH length=125 units=ft
New Line.SL_861626E-A_2 phases=1 bus1=X_861626E_T_05060.1 bus2=X_861626E_T_05060_SLD_2.1 linecode=1/0_AL_TRIPLEX_1PH length=125 units=ft
New Line.SL_861626E-A_3 phases=1 bus1=X_861626E_T_05060.1 bus2=X_861626E_T_05060_SLD_3.1 linecode=1/0_AL_TRIPLEX_1PH length=125 units=ft
New Line.SL_884804E-A_1 phases=1 bus1=X_884804E_T_05060.1 bus2=X_884804E_T_05060_SLD_1.1 linecode=1/0_AL_TRIPLEX_1PH length=125 units=ft
New Line.SL_861698E-A_1 phases=1 bus1=X_861698E_T_05060.1 bus2=X_861698E_T_05060_SLD_1.1 linecode=1/0_AL_TRIPLEX_1PH length=125 units=ft
New Line.SL_861698E-A_2 phases=1 bus1=X_861698E_T_05060.1 bus2=X_861698E_T_05060_SLD_2.1 linecode=1/0_AL_TRIPLEX_1PH length=125 units=ft
New Line.SL_861698E-A_3 phases=1 bus1=X_861698E_T_05060.1 bus2=X_861698E_T_05060_SLD_3.1 linecode=1/0_AL_TRIPLEX_1PH length=125 units=ft
New Line.SL_1159234E-B_1 phases=1 bus1=X_1159234E_T_05060.2 bus2=X_1159234E_T_05060_SLD_1.2 linecode=1/0_AL_TRIPLEX_1PH length=125 units=ft
New Line.SL_1159234E-B_2 phases=1 bus1=X_1159234E_T_05060.2 bus2=X_1159234E_T_05060_SLD_2.2 linecode=1/0_AL_TRIPLEX_1PH length=125 units=ft
New Line.SL_1159234E-B_3 phases=1 bus1=X_1159234E_T_05060.2 bus2=X_1159234E_T_05060_SLD_3.2 linecode=1/0_AL_TRIPLEX_1PH length=125 units=ft
New Line.SL_4403051E-A_1 phases=1 bus1=X_4403051E_T_05060.1 bus2=X_4403051E_T_05060_SLD_1.1 linecode=1/0_AL_TRIPLEX_1PH length=125 units=ft
New Line.SL_4403051E-A_2 phases=1 bus1=X_4403051E_T_05060.1 bus2=X_4403051E_T_05060_SLD_2.1 linecode=1/0_AL_TRIPLEX_1PH length=125 units=ft
New Line.SL_4403051E-A_3 phases=1 bus1=X_4403051E_T_05060.1 bus2=X_4403051E_T_05060_SLD_3.1 linecode=1/0_AL_TRIPLEX_1PH length=125 units=ft
New Line.SL_4426297E-C_1 phases=1 bus1=X_4426297E_T_05060.3 bus2=X_4426297E_T_05060_SLD_1.3 linecode=1/0_AL_TRIPLEX_1PH length=125 units=ft
New Line.SL_4426297E-C_2 phases=1 bus1=X_4426297E_T_05060.3 bus2=X_4426297E_T_05060_SLD_2.3 linecode=1/0_AL_TRIPLEX_1PH length=125 units=ft
New Line.SL_4426297E-C_3 phases=1 bus1=X_4426297E_T_05060.3 bus2=X_4426297E_T_05060_SLD_3.3 linecode=1/0_AL_TRIPLEX_1PH length=125 units=ft
New Line.SL_4426297E-C_4 phases=1 bus1=X_4426297E_T_05060.3 bus2=X_4426297E_T_05060_SLD_4.3 linecode=1/0_AL_TRIPLEX_1PH length=125 units=ft
New Line.SL_4426297E-C_5 phases=1 bus1=X_4426297E_T_05060.3 bus2=X_4426297E_T_05060_SLD_5.3 linecode=1/0_AL_TRIPLEX_1PH length=125 units=ft
New Line.SL_4426297E-C_6 phases=1 bus1=X_4426297E_T_05060.3 bus2=X_4426297E_T_05060_SLD_6.3 linecode=1/0_AL_TRIPLEX_1PH length=125 units=ft
New Line.SL_4426297E-C_7 phases=1 bus1=X_4426297E_T_05060.3 bus2=X_4426297E_T_05060_SLD_7.3 linecode=1/0_AL_TRIPLEX_1PH length=125 units=ft
New Line.SL_4426297E-C_8 phases=1 bus1=X_4426297E_T_05060.3 bus2=X_4426297E_T_05060_SLD_8.3 linecode=1/0_AL_TRIPLEX_1PH length=125 units=ft
New Line.SL_884875E-A_1 phases=1 bus1=X_884875E_T_05060.1 bus2=X_884875E_T_05060_SLD_1.1 linecode=1/0_AL_TRIPLEX_1PH length=125 units=ft
New Line.SL_884875E-A_2 phases=1 bus1=X_884875E_T_05060.1 bus2=X_884875E_T_05060_SLD_2.1 linecode=1/0_AL_TRIPLEX_1PH length=125 units=ft
New Line.SL_884875E-A_3 phases=1 bus1=X_884875E_T_05060.1 bus2=X_884875E_T_05060_SLD_3.1 linecode=1/0_AL_TRIPLEX_1PH length=125 units=ft
New Line.SL_884875E-A_4 phases=1 bus1=X_884875E_T_05060.1 bus2=X_884875E_T_05060_SLD_4.1 linecode=1/0_AL_TRIPLEX_1PH length=125 units=ft
New Line.SL_884875E-A_5 phases=1 bus1=X_884875E_T_05060.1 bus2=X_884875E_T_05060_SLD_5.1 linecode=1/0_AL_TRIPLEX_1PH length=125 units=ft
New Line.SL_4081667E-ABC_1 phases=3 bus1=X_4081667E_T_05060.1.2.3 bus2=X_4081667E_T_05060_SLD_1.1.2.3 linecode=3ph_h-397_acsr397_acsr397_acsr397_acsr length=125 units=ft
New Line.SL_4081665E-ABC_1 phases=3 bus1=X_4081665E_T_05060.1.2.3 bus2=X_4081665E_T_05060_SLD_1.1.2.3 linecode=3ph_h-397_acsr397_acsr397_acsr397_acsr length=125 units=ft
New Line.SL_2077628E-C_1 phases=1 bus1=X_2077628E_T_05060.3 bus2=X_2077628E_T_05060_SLD_1.3 linecode=1/0_AL_TRIPLEX_1PH length=125 units=ft
New Line.SL_2077628E-C_2 phases=1 bus1=X_2077628E_T_05060.3 bus2=X_2077628E_T_05060_SLD_2.3 linecode=1/0_AL_TRIPLEX_1PH length=125 units=ft
New Line.SL_2077628E-C_3 phases=1 bus1=X_2077628E_T_05060.3 bus2=X_2077628E_T_05060_SLD_3.3 linecode=1/0_AL_TRIPLEX_1PH length=125 units=ft
New Line.SL_2077628E-C_4 phases=1 bus1=X_2077628E_T_05060.3 bus2=X_2077628E_T_05060_SLD_4.3 linecode=1/0_AL_TRIPLEX_1PH length=125 units=ft
New Line.SL_861694E-A_1 phases=1 bus1=X_861694E_T_05060.1 bus2=X_861694E_T_05060_SLD_1.1 linecode=1/0_AL_TRIPLEX_1PH length=125 units=ft
New Line.SL_861694E-A_2 phases=1 bus1=X_861694E_T_05060.1 bus2=X_861694E_T_05060_SLD_2.1 linecode=1/0_AL_TRIPLEX_1PH length=125 units=ft
New Line.SL_861694E-A_3 phases=1 bus1=X_861694E_T_05060.1 bus2=X_861694E_T_05060_SLD_3.1 linecode=1/0_AL_TRIPLEX_1PH length=125 units=ft
New Line.SL_1363411E-B_1 phases=1 bus1=X_1363411E_T_05060.2 bus2=X_1363411E_T_05060_SLD_1.2 linecode=1/0_AL_TRIPLEX_1PH length=125 units=ft
New Line.SL_1363411E-B_2 phases=1 bus1=X_1363411E_T_05060.2 bus2=X_1363411E_T_05060_SLD_2.2 linecode=1/0_AL_TRIPLEX_1PH length=125 units=ft
New Line.SL_1363411E-B_3 phases=1 bus1=X_1363411E_T_05060.2 bus2=X_1363411E_T_05060_SLD_3.2 linecode=1/0_AL_TRIPLEX_1PH length=125 units=ft
New Line.SL_1379785ET1-ABC_1 phases=3 bus1=X_1379785ET1_T_05060.1.2.3 bus2=X_1379785ET1_T_05060_SLD_1.1.2.3 linecode=3ph_h-2/0_acsr2/0_acsr2/0_acsr2_acsr length=125 units=ft
New Line.SL_1379785ET1-ABC_2 phases=3 bus1=X_1379785ET1_T_05060.1.2.3 bus2=X_1379785ET1_T_05060_SLD_2.1.2.3 linecode=3ph_h-2/0_acsr2/0_acsr2/0_acsr2_acsr length=125 units=ft
New Line.SL_1379785ET1-ABC_3 phases=3 bus1=X_1379785ET1_T_05060.1.2.3 bus2=X_1379785ET1_T_05060_SLD_3.1.2.3 linecode=3ph_h-2/0_acsr2/0_acsr2/0_acsr2_acsr length=125 units=ft
New Line.SL_1379785ET1-ABC_4 phases=3 bus1=X_1379785ET1_T_05060.1.2.3 bus2=X_1379785ET1_T_05060_SLD_4.1.2.3 linecode=3ph_h-2/0_acsr2/0_acsr2/0_acsr2_acsr length=125 units=ft
New Line.SL_1379785ET1-ABC_5 phases=3 bus1=X_1379785ET1_T_05060.1.2.3 bus2=X_1379785ET1_T_05060_SLD_5.1.2.3 linecode=3ph_h-2/0_acsr2/0_acsr2/0_acsr2_acsr length=125 units=ft
New Line.SL_1130136E-A_1 phases=1 bus1=X_1130136E_T_05060.1 bus2=X_1130136E_T_05060_SLD_1.1 linecode=1/0_AL_TRIPLEX_1PH length=125 units=ft
New Line.SL_1130136E-A_2 phases=1 bus1=X_1130136E_T_05060.1 bus2=X_1130136E_T_05060_SLD_2.1 linecode=1/0_AL_TRIPLEX_1PH length=125 units=ft
New Line.SL_1130136E-A_3 phases=1 bus1=X_1130136E_T_05060.1 bus2=X_1130136E_T_05060_SLD_3.1 linecode=1/0_AL_TRIPLEX_1PH length=125 units=ft
New Line.SL_1130136E-A_4 phases=1 bus1=X_1130136E_T_05060.1 bus2=X_1130136E_T_05060_SLD_4.1 linecode=1/0_AL_TRIPLEX_1PH length=125 units=ft
New Line.SL_1130136E-A_5 phases=1 bus1=X_1130136E_T_05060.1 bus2=X_1130136E_T_05060_SLD_5.1 linecode=1/0_AL_TRIPLEX_1PH length=125 units=ft
New Line.SL_300182E-ABC_1 phases=3 bus1=X_300182E_T_05060.1.2.3 bus2=X_300182E_T_05060_SLD_1.1.2.3 linecode=3ph_h-397_acsr397_acsr397_acsr397_acsr length=125 units=ft
New Line.SL_P5514758-B_1 phases=1 bus1=X_P5514758_T_05060.2 bus2=X_P5514758_T_05060_SLD_1.2 linecode=1/0_AL_TRIPLEX_1PH length=125 units=ft
...
