examples/Custom_controls_example/DSSfiles/Diamond_dss/newloads_allocated.dss
New Load.1323503E-B_1 phases=1 bus=X_1323503E_T_05060_SLD_1.2 kV=0.24 xfkVA=5.583 pf=0.964 !status=variable mode=4 CVRwatts=0.8 CVRvars=3 class=1 numcust=0 yearly=LoadProfile xfkVA=38
New Load.1323503E-B_2 phases=1 bus=X_1323503E_T_05060_SLD_2.2 kV=0.24 xfkVA=5.583 pf=0.964 !status=variable mode=4 CVRwatts=0.8 CVRvars=3 class=1 numcust=0 yearly=LoadProfile xfkVA=38
New Load.1323503E-B_3 phases=1 bus=X_1323503E_T_05060_SLD_3.2 kV=0.24 xfkVA=5.583 pf=0.964 !status=variable mode=4 CVRwatts=0.8 CVRvars=3 class=1 numcust=0 yearly=LoadProfile xfkVA=38
New Load.1323503E-B_4 phases=1 bus=X_1323503E_T_05060_SLD_4.2 kV=0.24 xfkVA=5.583 pf=0.964 !status=variable mode=4 CVRwatts=0.8 CVRvars=3 class=1 numcust=0 yearly=LoadProfile xfkVA=38
New Load.4417776E-ABC_1 phases=3 bus=X_4417776E_T_05060_SLD_1.1.2.3 kV=0.48 xfkVA=4.318 pf=0.941 !status=variable mode=4 CVRwatts=0.8 CVRvars=3 class=1 numcust=0 yearly=LoadProfile xfkVA=45
New Load.4417776E-ABC_2 phases=3 bus=X_4417776E_T_05060_SLD_2.1.2.3 kV=0.48 xfkVA=4.318 pf=0.941 !status=variable mode=4 CVRwatts=0.8 CVRvars=3 class=1 numcust=0 yearly=LoadProfile xfkVA=45
New Load.4417776E-ABC_3 phases=3 bus=X_4417776E_T_05060_SLD_3.1.2.3 kV=0.48 xfkVA=4.318 pf=0.941 !status=variable mode=4 CVRwatts=0.8 CVRvars=3 class=1 numcust=0 yearly=LoadProfile xfkVA=45
New Load.4417776E-ABC_4 phases=3 bus=X_4417776E_T_05060_SLD_4.1.2.3 kV=0.48 xfkVA=4.318 pf=0.941 !status=variable mode=4 CVRwatts=0.8 CVRvars=3 class=1 numcust=0 yearly=LoadProfile xfkVA=45
New Load.4417776E-ABC_5 phases=3 bus=X_4417776E_T_05060_SLD_5.1.2.3 kV=0.48 xfkVA=4.318 pf=0.941 !status=variable mode=4 CVRwatts=0.8 CVRvars=3 class=1 numcust=0 yearly=LoadProfile xfkVA=45
New Load.121642E-ABC_1 phases=3 bus=X_121642E_T_05060_SLD_1.1.2.3 kV=0.48 xfkVA=3.998 pf=0.941 !status=variable mode=4 CVRwatts=0.8 CVRvars=3 class=1 numcust=0 yearly=LoadProfile xfkVA=25
New Load.121642E-ABC_2 phases=3 bus=X_121642E_T_05060_SLD_2.1.2.3 kV=0.48 xfkVA=3.998 pf=0.941 !status=variable mode=4 CVRwatts=0.8 CVRvars=3 class=1 numcust=0 yearly=LoadProfile xfkVA=25
New Load.121642E-ABC_3 phases=3 bus=X_121642E_T_05060_SLD_3.1.2.3 kV=0.48 xfkVA=3.998 pf=0.941 !status=variable mode=4 CVRwatts=0.8 CVRvars=3 class=1 numcust=0 yearly=LoadProfile xfkVA=25
New Load.533712ET1-A_1 phases=1 bus=X_533712ET1_T_05060_SLD_1.1 kV=0.24 xfkVA=3.827 pf=0.967 !status=variable mode=4 CVRwatts=0.8 CVRvars=3 class=1 numcust=0 yearly=LoadProfile xfkVA=25
New Load.533712ET1-A_2 phases=1 bus=X_533712ET1_T_05060_SLD_2.1 kV=0.24 xfkVA=3.827 pf=0.967 !status=variable mode=4 CVRwatts=0.8 CVRvars=3 class=1 numcust=0 yearly=LoadProfile xfkVA=25
New Load.533712ET1-A_3 phases=1 bus=X_533712ET1_T_05060_SLD_3.1 kV=0.24 xfkVA=3.827 pf=0.967 !status=variable mode=4 CVRwatts=0.8 CVRvars=3 class=1 numcust=0 yearly=LoadProfile xfkVA=25
New Load.4082101E-C_1 phases=1 bus=X_4082101E_T_05060_SLD_1.3 kV=0.24 xfkVA=5.41 pf=0.95 !status=variable mode=4 CVRwatts=0.8 CVRvars=3 class=1 numcust=0 yearly=LoadProfile xfkVA=25
New Load.4082101E-C_2 phases=1 bus=X_4082101E_T_05060_SLD_2.3 kV=0.24 xfkVA=5.41 pf=0.95 !status=variable mode=4 CVRwatts=0.8 CVRvars=3 class=1 numcust=0 yearly=LoadProfile xfkVA=25
New Load.4082101E-C_3 phases=1 bus=X_4082101E_T_05060_SLD_3.3 kV=0.24 xfkVA=5.41 pf=0.95 !status=variable mode=4 CVRwatts=0.8 CVRvars=3 class=1 numcust=0 yearly=LoadProfile xfkVA=25
New Load.1041675E-ABC_1 phases=3 bus=X_1041675E_T_05060_SLD_1.1.2.3 kV=0.48 xfkVA=3.598 pf=0.941 !status=variable mode=4 CVRwatts=0.8 CVRvars=3 class=1 numcust=0 yearly=LoadProfile xfkVA=15
New Load.1041675E-ABC_2 phases=3 bus=X_1041675E_T_05060_SLD_2.1.2.3 kV=0.48 xfkVA=3.598 pf=0.941 !status=variable mode=4 CVRwatts=0.8 CVRvars=3 class=1 numcust=0 yearly=LoadProfile xfkVA=15
New Load.1006082E-A_1 phases=1 bus=X_1006082E_T_05060_SLD_1.1 kV=0.24 xfkVA=3.827 pf=0.967 !status=variable mode=4 CVRwatts=0.8 CVRvars=3 class=1 numcust=0 yearly=LoadProfile xfkVA=25
New Load.1006082E-A_2 phases=1 bus=X_1006082E_T_05060_SLD_2.1 kV=0.24 xfkVA=3.827 pf=0.967 !status=variable mode=4 CVRwatts=0.8 CVRvars=3 class=1 numcust=0 yearly=LoadProfile xfkVA=25
New Load.1006082E-A_3 phases=1 bus=X_1006082E_T_05060_SLD_3.1 kV=0.24 xfkVA=3.827 pf=0.967 !status=variable mode=4 CVRwatts=0.8 CVRvars=3 class=1 numcust=0 yearly=LoadProfile xfkVA=25
New Load.4160253E-ABC_1 phases=3 bus=X_4160253E_T_05060_SLD_1.1.2.3 kV=0.48 xfkVA=4.798 pf=0.941 !status=variable mode=4 CVRwatts=0.8 CVRvars=3 class=1 numcust=0 yearly=LoadProfile xfkVA=20
New Load.4160253E-ABC_2 phases=3 bus=X_4160253E_T_05060_SLD_2.1.2.3 kV=0.48 xfkVA=4.798 pf=0.941 !status=variable mode=4 CVRwatts=0.8 CVRvars=3 class=1 numcust=0 yearly=LoadProfile xfkVA=20
New Load.1159236E-B_1 phases=1 bus=X_1159236E_T_05060_SLD_1.2 kV=0.24 xfkVA=4.963 pf=0.964 !status=variable mode=4 CVRwatts=0.8 CVRvars=3 class=1 numcust=0 yearly=LoadProfile xfkVA=25
...